# generated using pymatgen
data_B2O3
_symmetry_space_group_name_H-M   'P 1'
_cell_length_a   4.33741724
_cell_length_b   4.33741724
_cell_length_c   8.30902354
_cell_angle_alpha   90.00000000
_cell_angle_beta   90.00000000
_cell_angle_gamma   120.00000000
_symmetry_Int_Tables_number   1
_chemical_formula_structural   B2O3
_chemical_formula_sum   'B6 O9'
_cell_volume   135.37641937
_cell_formula_units_Z   3
loop_
 _symmetry_equiv_pos_site_id
 _symmetry_equiv_pos_as_xyz
  1  'x, y, z'
loop_
 _atom_type_symbol
 _atom_type_oxidation_number
  B3+  3.0
  O2-  -2.0
loop_
 _atom_site_type_symbol
 _atom_site_label
 _atom_site_symmetry_multiplicity
 _atom_site_fract_x
 _atom_site_fract_y
 _atom_site_fract_z
 _atom_site_occupancy
  B3+  B0  1  0.76690554  0.60403489  0.77498759  1
  B3+  B1  1  0.83712935  0.23309446  0.44165426  1
  B3+  B2  1  0.39596511  0.16287065  0.10832092  1
  B3+  B3  1  0.23309446  0.83712935  0.55834574  1
  B3+  B4  1  0.60403489  0.76690554  0.22501241  1
  B3+  B5  1  0.16287065  0.39596511  0.89167908  1
  O2-  O6  1  0.14909580  0.55017650  0.46129556  1
  O2-  O7  1  0.44982350  0.59891930  0.79462889  1
  O2-  O8  1  0.40108070  0.85090420  0.12796223  1
  O2-  O9  1  0.00000000  0.84426733  0.66666667  1
  O2-  O10  1  0.84426733  0.00000000  0.33333333  1
  O2-  O11  1  0.15573267  0.15573267  0.00000000  1
  O2-  O12  1  0.55017650  0.14909580  0.53870444  1
  O2-  O13  1  0.59891930  0.44982350  0.20537111  1
  O2-  O14  1  0.85090420  0.40108070  0.87203777  1
