LAMMPS (22 Jul 2025 - Update 3)
# ------------------------------------------------------------------
# 1. INITIALIZATION
# ------------------------------------------------------------------
units           metal          # eV and Angstroms (Matches Deng/Du paper)
atom_style      charge
boundary        p p p
read_data       BorosilicateSupercellTemplateV3.data
Reading data file ...
  orthogonal box = (0 0 0) to (37.8 37.8 37.8)
  reading atom labelmap ...
  reading atoms ...
  4185 atoms

# ------------------------------------------------------------------
# 2. ASSIGN CHARGES (From Deng & Du 2016)
# ------------------------------------------------------------------
# 1=Si, 2=O, 3=B, 4=Na, 5=Al

set type 1 charge  1.890   # Si
Setting atom values ...
  1026 settings made for charge
set type 2 charge -0.945   # O
Setting atom values ...
  2673 settings made for charge
set type 3 charge  1.418   # B
Setting atom values ...
  324 settings made for charge
set type 4 charge  0.473   # Na
Setting atom values ...
  108 settings made for charge
set type 5 charge  1.418   # Al
Setting atom values ...
  54 settings made for charge

# ------------------------------------------------------------------
# 3. FIX DENSITY & OVERLAPS (The Soft Ramp Method)
# ------------------------------------------------------------------

# A. DEFINE SOFT POTENTIAL
# Start with a "Soft" potential with cutoff 2.5 Angstroms
pair_style      soft 2.5
pair_coeff      * * 0.0 2.5   # Start with Energy A = 0.0 (Ghost atoms)

# B. RAMP REPULSION
# We ramp the pre-factor 'A' from 0.0 to 100.0 eV.
# This slowly "inflates" the atoms, pushing overlapping ones apart gently.
variable        prefactor equal ramp(0.0,100.0)
fix             1 all adapt 1 pair soft a * * v_prefactor

# C. INITIALIZE VELOCITIES
velocity        all create 300.0 12345 dist gaussian
timestep        0.001
thermo          100

print "--- STARTING SOFT RAMP ---"
--- STARTING SOFT RAMP ---

# D. Run with NVE to let them push apart
fix             2 all nve
run             10000

CITE-CITE-CITE-CITE-CITE-CITE-CITE-CITE-CITE-CITE-CITE-CITE-CITE

Your simulation uses code contributions which should be cited:

- Type Label Framework: https://doi.org/10.1021/acs.jpcb.3c08419

@Article{Gissinger24,
 author = {Jacob R. Gissinger, Ilia Nikiforov, Yaser Afshar, Brendon Waters, Moon-ki Choi, Daniel S. Karls, Alexander Stukowski, Wonpil Im, Hendrik Heinz, Axel Kohlmeyer, and Ellad B. Tadmor},
 title = {Type Label Framework for Bonded Force Fields in LAMMPS},
 journal = {J. Phys. Chem. B},
 year =    2024,
 volume =  128,
 number =  13,
 pages =   {3282--3297}
}

CITE-CITE-CITE-CITE-CITE-CITE-CITE-CITE-CITE-CITE-CITE-CITE-CITE

Generated 0 of 10 mixed pair_coeff terms from geometric mixing rule
Step          Temp          E_pair         E_mol          TotEng         Press
0   300            0              0              162.24733      3208.642
Averages over the last 51 of 101 rows, steps 5000 to 10000:
Temp E_pair E_mol TotEng Press
19994.9 10879.4 0 21693.2 2.99151e+06
Loop time of 1.22608 on 20 procs for 10000 steps with 4185 atoms

unfix           1
unfix           2

print "--- SOFT RAMP COMPLETE ---"
--- SOFT RAMP COMPLETE ---

# ------------------------------------------------------------------
# 2. REAL POTENTIAL (Buckingham)
# ------------------------------------------------------------------

# Set Buckingham Potential back from Soft
pair_style      buck/coul/long 10.0
kspace_style    pppm 1.0e-4

# (Deng & Du Parameters)
pair_coeff 1 2  45296.72   0.161   46.1395
pair_coeff 4 2  120360.22  0.170    0.0000
pair_coeff 2 2   9027.03   0.265   85.0321
pair_coeff 5 2  28287.00   0.172   34.7600
pair_coeff 3 2  197810.14  0.1245  35.0020
pair_coeff 5 5    351.94   0.360    0.0000
pair_coeff 5 4    175.21   0.130    0.0000
pair_coeff 5 1    646.67   0.120    0.0000
pair_coeff 5 3    137.58   0.479    0.0000
pair_coeff 1 1    834.40   0.290    0.0000
pair_coeff 1 3    337.70   0.290    0.0000
pair_coeff 3 3    121.10   0.350    0.0000
pair_coeff 4 4      0.00   1.000    0.0000
pair_coeff 1 4      0.00   1.000    0.0000
pair_coeff 3 4      0.00   1.000    0.0000

# Safety minimization
minimize 1.0e-4 1.0e-6 100 1000
PPPM initialization ...
For more information see https://docs.lammps.org/err0029 (src/kspace.cpp:330)
  G vector (1/distance) = 0.29010492
  grid = 27 27 27
  stencil order = 5
  estimated absolute RMS force accuracy = 0.0012949152
  estimated relative force accuracy = 8.9926881e-05
  3d grid and FFT values/proc = 4800 1176
Generated 0 of 10 mixed pair_coeff terms from geometric mixing rule
Step          Temp          E_pair         E_mol          TotEng         Press
10000   23714.363     -2846.3542      0              9978.9529      502544.66
Loop time of 0.348332 on 20 procs for 100 steps with 4185 atoms

Minimization stats:
  Stopping criterion = max iterations
  Energy initial, next-to-last, final =
  Force two-norm initial, final = 1170.7769 56.587813
  Force max component initial, final = 46.06206 12.302219
  Final line search alpha, max atom move = 0.0099956459 0.12296863
  Iterations, force evaluations = 100 100

reset_timestep  0

# ------------------------------------------------------------------
# 5. MELT AND QUENCH PROTOCOL
# ------------------------------------------------------------------

# Output settings (Save log info every 1000 steps)
thermo          1000
thermo_style    custom step temp press vol density pe

# Define a trajectory file so you can watch simulation later
# Saves a snapshot every 5000 steps
dump            1 all custom 5000 evolution.lammpstrj id type x y z

# ==========================================================
#
# ==========================================================

# A. Relax at 300K (60ps)
print "--- RELAXING AT 300K FOR 60ps ---"
--- RELAXING AT 300K FOR 60ps ---
fix     1 all nvt temp 300.0 300.0 0.1
run     60000
PPPM initialization ...
  G vector (1/distance) = 0.29010492
  grid = 27 27 27
  stencil order = 5
  estimated absolute RMS force accuracy = 0.0012949152
  estimated relative force accuracy = 8.9926881e-05
  3d grid and FFT values/proc = 4800 1176
Generated 0 of 10 mixed pair_coeff terms from geometric mixing rule
Step          Temp          Press          Volume        Density         PotEng
0   23714.363      215926.53      54010.152      2.4295966     -47251.109
Averages over the last 31 of 61 rows, steps 30000 to 60000:
Temp Press Volume Density PotEng
300.106 -19084.5 54010.2 2.4296 -48930.2
Loop time of 155.87 on 20 procs for 60000 steps with 4185 atoms

unfix   1

# B. Melt from 300K to 6000K (60ps)
print "--- HEATING TO 6000K ---"
--- HEATING TO 6000K ---
fix     1 all nvt temp 300.0 6000.0 0.1
run     60000
PPPM initialization ...
  G vector (1/distance) = 0.29010492
  grid = 27 27 27
  stencil order = 5
  estimated absolute RMS force accuracy = 0.0012949152
  estimated relative force accuracy = 8.9926881e-05
  3d grid and FFT values/proc = 4800 1176
Generated 0 of 10 mixed pair_coeff terms from geometric mixing rule
Step          Temp          Press          Volume        Density         PotEng
60000   297.52111     -19500.252      54010.152      2.4295966     -48931.31
Averages over the last 31 of 61 rows, steps 90000 to 120000:
Temp Press Volume Density PotEng
4572.07 35902.1 54010.2 2.4296 -45841.3
Loop time of 161.41 on 20 procs for 60000 steps with 4185 atoms

unfix   1

# C. Relax at 5000K (100ps)
print "--- HOLDING AT 5000K ---"
--- HOLDING AT 5000K ---
fix     1 all nvt temp 6000.0 5000.0 0.1
run     100000
PPPM initialization ...
  G vector (1/distance) = 0.29010492
  grid = 27 27 27
  stencil order = 5
  estimated absolute RMS force accuracy = 0.0012949152
  estimated relative force accuracy = 8.9926881e-05
  3d grid and FFT values/proc = 4800 1176
Generated 0 of 10 mixed pair_coeff terms from geometric mixing rule
Step          Temp          Press          Volume        Density         PotEng
120000   5983.8648      62676.651      54010.152      2.4295966     -44497.094
Averages over the last 51 of 101 rows, steps 170000 to 220000:
Temp Press Volume Density PotEng
5259.46 46732.8 54010.2 2.4296 -45164.7
Loop time of 278.12 on 20 procs for 100000 steps with 4185 atoms

unfix   1

# D. Cool to 300K from 5000K (5K/ps)
# Calculation: (5000K - 300K) / 5 K/ps = 940 ps
# 940 ps * 1000 steps/ps = 940,000 steps
print "--- COOLING AT 5 K/ps TO 300K ---"
--- COOLING AT 5 K/ps TO 300K ---
fix     2 all npt temp 5000.0 300.0 0.1 iso 0.0 0.0 1.0
run     940000
PPPM initialization ...
  G vector (1/distance) = 0.29010492
  grid = 27 27 27
  stencil order = 5
  estimated absolute RMS force accuracy = 0.0012949152
  estimated relative force accuracy = 8.9926881e-05
  3d grid and FFT values/proc = 4800 1176
Generated 0 of 10 mixed pair_coeff terms from geometric mixing rule
Step          Temp          Press          Volume        Density         PotEng
220000   4960.5232      46927.259      54010.152      2.4295966     -45392.385
Averages over the last 471 of 941 rows, steps 690000 to 1160000:
Temp Press Volume Density PotEng
1476.75 186.018 55183.1 2.37928 -48546.4
Loop time of 2574.98 on 20 procs for 940000 steps with 4185 atoms

unfix   2

# E. Relax with NVT and NVE (50ps Each)
# NVE allows the energy to fluctuate without a thermostat
print "--- RELAXING STRUCTURE WITH NVT AND NVE ---"
--- RELAXING STRUCTURE WITH NVT AND NVE ---
fix     3 all nvt temp 300.0 300.0 0.1
run     50000
PPPM initialization ...
  G vector (1/distance) = 0.29059751
  grid = 27 27 27
  stencil order = 5
  estimated absolute RMS force accuracy = 0.0012703227
  estimated relative force accuracy = 8.8219027e-05
  3d grid and FFT values/proc = 4800 1176
Generated 0 of 10 mixed pair_coeff terms from geometric mixing rule
Step          Temp          Press          Volume        Density         PotEng
1160000   295.3396      -207.96136      52985.588      2.4765769     -49279.895
Averages over the last 26 of 51 rows, steps 1185000 to 1210000:
Temp Press Volume Density PotEng
299.845 162.492 52985.6 2.47658 -49279.2
Loop time of 130.056 on 20 procs for 50000 steps with 4185 atoms

unfix   3
fix     4 all nve
run     50000
PPPM initialization ...
  G vector (1/distance) = 0.29059751
  grid = 27 27 27
  stencil order = 5
  estimated absolute RMS force accuracy = 0.0012703227
  estimated relative force accuracy = 8.8219027e-05
  3d grid and FFT values/proc = 4800 1176
Generated 0 of 10 mixed pair_coeff terms from geometric mixing rule
Step          Temp          Press          Volume        Density         PotEng
1210000   303.14573      1816.9974      52985.588      2.4765769     -49279.814
Averages over the last 26 of 51 rows, steps 1235000 to 1260000:
Temp Press Volume Density PotEng
301.272 341.199 52985.6 2.47658 -49278.8
Loop time of 129.913 on 20 procs for 50000 steps with 4185 atoms

unfix   4

# ------------------------------------------------------------------
# 5. FINAL OUTPUT
# ------------------------------------------------------------------
write_data      AmorphousBorosilicateGlassCube.data
System init for write_data ...
PPPM initialization ...
  G vector (1/distance) = 0.29059751
  grid = 27 27 27
  stencil order = 5
  estimated absolute RMS force accuracy = 0.0012703227
  estimated relative force accuracy = 8.8219027e-05
  3d grid and FFT values/proc = 4800 1176
Generated 0 of 10 mixed pair_coeff terms from geometric mixing rule
print "--- SIMULATION COMPLETE ---"
--- SIMULATION COMPLETE ---
